<?xml version="1.0" encoding="UTF-8"?>

<!-- generated on 10.02.2020 15:58:17 by Eclipse SUMO netedit Version v1_4_0+0952-47d9c9de44
<configuration xmlns:xsi="http://www.w3.org/2001/XMLSchema-instance" xsi:noNamespaceSchemaLocation="http://sumo.dlr.de/xsd/netconvertConfiguration.xsd">

    <output>
        <output-file value="C:\Users\arme_ma\Documents\Giuliana\Projekte\DRT_Algorithmus\Desarrollo\Input\Desarrollo.net.xml"/>
    </output>

    <processing>
        <offset.disable-normalization value="true"/>
    </processing>

    <junctions>
        <no-turnarounds value="true"/>
    </junctions>

    <report>
        <aggregate-warnings value="5"/>
    </report>

</configuration>
-->

<net version="1.3" junctionCornerDetail="5" limitTurnSpeed="5.50" xmlns:xsi="http://www.w3.org/2001/XMLSchema-instance" xsi:noNamespaceSchemaLocation="http://sumo.dlr.de/xsd/net_file.xsd">

    <location netOffset="0.00,0.00" convBoundary="-200.00,-1400.00,1800.00,0.00" origBoundary="10000000000.00,10000000000.00,-10000000000.00,-10000000000.00" projParameter="!"/>

    <edge id=":gneJ0_0" function="internal">
        <lane id=":gneJ0_0_0" index="0" disallow="pedestrian" speed="7.10" length="10.97" shape="-194.80,1.60 -197.78,1.18 -199.90,-0.10 -201.17,-2.22 -201.60,-5.20"/>
    </edge>
    <edge id=":gneJ0_1" function="internal">
        <lane id=":gneJ0_1_0" index="0" disallow="pedestrian" speed="5.37" length="5.81" shape="-198.40,-5.20 -198.18,-3.62 -197.50,-2.50 -196.38,-1.82 -194.80,-1.60"/>
    </edge>
    <edge id=":gneJ1_0" function="internal">
        <lane id=":gneJ1_0_0" index="0" disallow="pedestrian" speed="13.89" length="14.40" shape="-92.80,1.60 -107.20,1.60"/>
    </edge>
    <edge id=":gneJ1_1" function="internal">
        <lane id=":gneJ1_1_0" index="0" disallow="pedestrian" speed="8.00" length="5.93" shape="-92.80,1.60 -96.65,1.05 -98.40,-0.00"/>
    </edge>
    <edge id=":gneJ1_6" function="internal">
        <lane id=":gneJ1_6_0" index="0" disallow="pedestrian" speed="8.00" length="8.26" shape="-98.40,-0.00 -99.40,-0.60 -101.05,-3.35 -101.60,-7.20"/>
    </edge>
    <edge id=":gneJ1_2" function="internal">
        <lane id=":gneJ1_2_0" index="0" disallow="pedestrian" speed="6.51" length="9.03" shape="-98.40,-7.20 -98.05,-4.75 -97.00,-3.00 -95.25,-1.95 -92.80,-1.60"/>
    </edge>
    <edge id=":gneJ1_3" function="internal">
        <lane id=":gneJ1_3_0" index="0" disallow="pedestrian" speed="8.00" length="14.19" shape="-98.40,-7.20 -98.95,-3.35 -100.60,-0.60 -103.35,1.05 -107.20,1.60"/>
    </edge>
    <edge id=":gneJ1_4" function="internal">
        <lane id=":gneJ1_4_0" index="0" disallow="pedestrian" speed="6.51" length="9.03" shape="-107.20,-1.60 -104.75,-1.95 -103.00,-3.00 -101.95,-4.75 -101.60,-7.20"/>
    </edge>
    <edge id=":gneJ1_5" function="internal">
        <lane id=":gneJ1_5_0" index="0" disallow="pedestrian" speed="13.89" length="14.40" shape="-107.20,-1.60 -92.80,-1.60"/>
    </edge>
    <edge id=":gneJ10_0" function="internal">
        <lane id=":gneJ10_0_0" index="0" disallow="pedestrian" speed="6.51" length="9.03" shape="698.40,-92.80 698.05,-95.25 697.00,-97.00 695.25,-98.05 692.80,-98.40"/>
    </edge>
    <edge id=":gneJ10_1" function="internal">
        <lane id=":gneJ10_1_0" index="0" disallow="pedestrian" speed="13.89" length="14.40" shape="698.40,-92.80 698.40,-107.20"/>
    </edge>
    <edge id=":gneJ10_2" function="internal">
        <lane id=":gneJ10_2_0" index="0" disallow="pedestrian" speed="13.89" length="14.40" shape="701.60,-107.20 701.60,-92.80"/>
    </edge>
    <edge id=":gneJ10_3" function="internal">
        <lane id=":gneJ10_3_0" index="0" disallow="pedestrian" speed="8.00" length="5.93" shape="701.60,-107.20 701.05,-103.35 700.00,-101.60"/>
    </edge>
    <edge id=":gneJ10_6" function="internal">
        <lane id=":gneJ10_6_0" index="0" disallow="pedestrian" speed="8.00" length="8.26" shape="700.00,-101.60 699.40,-100.60 696.65,-98.95 692.80,-98.40"/>
    </edge>
    <edge id=":gneJ10_4" function="internal">
        <lane id=":gneJ10_4_0" index="0" disallow="pedestrian" speed="6.51" length="9.03" shape="692.80,-101.60 695.25,-101.95 697.00,-103.00 698.05,-104.75 698.40,-107.20"/>
    </edge>
    <edge id=":gneJ10_5" function="internal">
        <lane id=":gneJ10_5_0" index="0" disallow="pedestrian" speed="8.00" length="14.19" shape="692.80,-101.60 696.65,-101.05 699.40,-99.40 701.05,-96.65 701.60,-92.80"/>
    </edge>
    <edge id=":gneJ11_0" function="internal">
        <lane id=":gneJ11_0_0" index="0" disallow="pedestrian" speed="6.51" length="9.03" shape="698.40,-192.80 698.05,-195.25 697.00,-197.00 695.25,-198.05 692.80,-198.40"/>
    </edge>
    <edge id=":gneJ11_1" function="internal">
        <lane id=":gneJ11_1_0" index="0" disallow="pedestrian" speed="13.89" length="14.40" shape="698.40,-192.80 698.40,-207.20"/>
    </edge>
    <edge id=":gneJ11_2" function="internal">
        <lane id=":gneJ11_2_0" index="0" disallow="pedestrian" speed="13.89" length="14.40" shape="701.60,-207.20 701.60,-192.80"/>
    </edge>
    <edge id=":gneJ11_3" function="internal">
        <lane id=":gneJ11_3_0" index="0" disallow="pedestrian" speed="8.00" length="5.93" shape="701.60,-207.20 701.05,-203.35 700.00,-201.60"/>
    </edge>
    <edge id=":gneJ11_6" function="internal">
        <lane id=":gneJ11_6_0" index="0" disallow="pedestrian" speed="8.00" length="8.26" shape="700.00,-201.60 699.40,-200.60 696.65,-198.95 692.80,-198.40"/>
    </edge>
    <edge id=":gneJ11_4" function="internal">
        <lane id=":gneJ11_4_0" index="0" disallow="pedestrian" speed="6.51" length="9.03" shape="692.80,-201.60 695.25,-201.95 697.00,-203.00 698.05,-204.75 698.40,-207.20"/>
    </edge>
    <edge id=":gneJ11_5" function="internal">
        <lane id=":gneJ11_5_0" index="0" disallow="pedestrian" speed="8.00" length="14.19" shape="692.80,-201.60 696.65,-201.05 699.40,-199.40 701.05,-196.65 701.60,-192.80"/>
    </edge>
    <edge id=":gneJ12_0" function="internal">
        <lane id=":gneJ12_0_0" index="0" disallow="pedestrian" speed="6.51" length="9.03" shape="698.40,-292.80 698.05,-295.25 697.00,-297.00 695.25,-298.05 692.80,-298.40"/>
    </edge>
    <edge id=":gneJ12_1" function="internal">
        <lane id=":gneJ12_1_0" index="0" disallow="pedestrian" speed="13.89" length="14.40" shape="698.40,-292.80 698.40,-307.20"/>
    </edge>
    <edge id=":gneJ12_2" function="internal">
        <lane id=":gneJ12_2_0" index="0" disallow="pedestrian" speed="13.89" length="14.40" shape="701.60,-307.20 701.60,-292.80"/>
    </edge>
    <edge id=":gneJ12_3" function="internal">
        <lane id=":gneJ12_3_0" index="0" disallow="pedestrian" speed="8.00" length="5.93" shape="701.60,-307.20 701.05,-303.35 700.00,-301.60"/>
    </edge>
    <edge id=":gneJ12_6" function="internal">
        <lane id=":gneJ12_6_0" index="0" disallow="pedestrian" speed="8.00" length="8.26" shape="700.00,-301.60 699.40,-300.60 696.65,-298.95 692.80,-298.40"/>
    </edge>
    <edge id=":gneJ12_4" function="internal">
        <lane id=":gneJ12_4_0" index="0" disallow="pedestrian" speed="6.51" length="9.03" shape="692.80,-301.60 695.25,-301.95 697.00,-303.00 698.05,-304.75 698.40,-307.20"/>
    </edge>
    <edge id=":gneJ12_5" function="internal">
        <lane id=":gneJ12_5_0" index="0" disallow="pedestrian" speed="8.00" length="14.19" shape="692.80,-301.60 696.65,-301.05 699.40,-299.40 701.05,-296.65 701.60,-292.80"/>
    </edge>
    <edge id=":gneJ13_0" function="internal">
        <lane id=":gneJ13_0_0" index="0" disallow="pedestrian" speed="6.51" length="9.03" shape="698.40,-392.80 698.05,-395.25 697.00,-397.00 695.25,-398.05 692.80,-398.40"/>
    </edge>
    <edge id=":gneJ13_1" function="internal">
        <lane id=":gneJ13_1_0" index="0" disallow="pedestrian" speed="13.89" length="14.40" shape="698.40,-392.80 698.40,-407.20"/>
    </edge>
    <edge id=":gneJ13_2" function="internal">
        <lane id=":gneJ13_2_0" index="0" disallow="pedestrian" speed="13.89" length="14.40" shape="701.60,-407.20 701.60,-392.80"/>
    </edge>
    <edge id=":gneJ13_3" function="internal">
        <lane id=":gneJ13_3_0" index="0" disallow="pedestrian" speed="8.00" length="5.93" shape="701.60,-407.20 701.05,-403.35 700.00,-401.60"/>
    </edge>
    <edge id=":gneJ13_6" function="internal">
        <lane id=":gneJ13_6_0" index="0" disallow="pedestrian" speed="8.00" length="8.26" shape="700.00,-401.60 699.40,-400.60 696.65,-398.95 692.80,-398.40"/>
    </edge>
    <edge id=":gneJ13_4" function="internal">
        <lane id=":gneJ13_4_0" index="0" disallow="pedestrian" speed="6.51" length="9.03" shape="692.80,-401.60 695.25,-401.95 697.00,-403.00 698.05,-404.75 698.40,-407.20"/>
    </edge>
    <edge id=":gneJ13_5" function="internal">
        <lane id=":gneJ13_5_0" index="0" disallow="pedestrian" speed="8.00" length="14.19" shape="692.80,-401.60 696.65,-401.05 699.40,-399.40 701.05,-396.65 701.60,-392.80"/>
    </edge>
    <edge id=":gneJ14_0" function="internal">
        <lane id=":gneJ14_0_0" index="0" disallow="pedestrian" speed="6.51" length="9.03" shape="698.40,-492.80 698.05,-495.25 697.00,-497.00 695.25,-498.05 692.80,-498.40"/>
    </edge>
    <edge id=":gneJ14_1" function="internal">
        <lane id=":gneJ14_1_0" index="0" disallow="pedestrian" speed="11.40" length="4.35" shape="698.40,-492.80 698.74,-496.56 698.91,-497.11"/>
    </edge>
    <edge id=":gneJ14_6" function="internal">
        <lane id=":gneJ14_6_0" index="0" disallow="pedestrian" speed="11.40" length="9.67" shape="698.91,-497.11 699.75,-499.89 701.44,-502.78 703.80,-505.25"/>
    </edge>
    <edge id=":gneJ14_2" function="internal">
        <lane id=":gneJ14_2_0" index="0" disallow="pedestrian" speed="10.24" length="11.22" shape="705.85,-502.79 703.99,-500.84 702.66,-498.52 701.87,-495.84 701.60,-492.80"/>
    </edge>
    <edge id=":gneJ14_3" function="internal">
        <lane id=":gneJ14_3_0" index="0" disallow="pedestrian" speed="13.57" length="14.15" shape="705.85,-502.79 703.16,-500.76 700.47,-499.40 697.20,-498.64 692.80,-498.40"/>
    </edge>
    <edge id=":gneJ14_4" function="internal">
        <lane id=":gneJ14_4_0" index="0" disallow="pedestrian" speed="12.50" length="11.96" shape="692.80,-501.60 696.42,-501.72 699.03,-502.23 701.28,-503.33 703.80,-505.25"/>
    </edge>
    <edge id=":gneJ14_5" function="internal">
        <lane id=":gneJ14_5_0" index="0" disallow="pedestrian" speed="8.00" length="14.19" shape="692.80,-501.60 696.65,-501.05 699.40,-499.40 701.05,-496.65 701.60,-492.80"/>
    </edge>
    <edge id=":gneJ15_0" function="internal">
        <lane id=":gneJ15_0_0" index="0" disallow="pedestrian" speed="6.51" length="9.03" shape="598.40,-492.80 598.05,-495.25 597.00,-497.00 595.25,-498.05 592.80,-498.40"/>
    </edge>
    <edge id=":gneJ15_1" function="internal">
        <lane id=":gneJ15_1_0" index="0" disallow="pedestrian" speed="8.00" length="14.19" shape="598.40,-492.80 598.95,-496.65 600.60,-499.40 603.35,-501.05 607.20,-501.60"/>
    </edge>
    <edge id=":gneJ15_2" function="internal">
        <lane id=":gneJ15_2_0" index="0" disallow="pedestrian" speed="6.51" length="9.03" shape="607.20,-498.40 604.75,-498.05 603.00,-497.00 601.95,-495.25 601.60,-492.80"/>
    </edge>
    <edge id=":gneJ15_3" function="internal">
        <lane id=":gneJ15_3_0" index="0" disallow="pedestrian" speed="13.89" length="14.40" shape="607.20,-498.40 592.80,-498.40"/>
    </edge>
    <edge id=":gneJ15_4" function="internal">
        <lane id=":gneJ15_4_0" index="0" disallow="pedestrian" speed="13.89" length="14.40" shape="592.80,-501.60 607.20,-501.60"/>
    </edge>
    <edge id=":gneJ15_5" function="internal">
        <lane id=":gneJ15_5_0" index="0" disallow="pedestrian" speed="8.00" length="5.93" shape="592.80,-501.60 596.65,-501.05 598.40,-500.00"/>
    </edge>
    <edge id=":gneJ15_6" function="internal">
        <lane id=":gneJ15_6_0" index="0" disallow="pedestrian" speed="8.00" length="8.26" shape="598.40,-500.00 599.40,-499.40 601.05,-496.65 601.60,-492.80"/>
    </edge>
    <edge id=":gneJ16_0" function="internal">
        <lane id=":gneJ16_0_0" index="0" disallow="pedestrian" speed="6.51" length="9.03" shape="498.40,-492.80 498.05,-495.25 497.00,-497.00 495.25,-498.05 492.80,-498.40"/>
    </edge>
    <edge id=":gneJ16_1" function="internal">
        <lane id=":gneJ16_1_0" index="0" disallow="pedestrian" speed="8.00" length="14.19" shape="498.40,-492.80 498.95,-496.65 500.60,-499.40 503.35,-501.05 507.20,-501.60"/>
    </edge>
    <edge id=":gneJ16_2" function="internal">
        <lane id=":gneJ16_2_0" index="0" disallow="pedestrian" speed="6.51" length="9.03" shape="507.20,-498.40 504.75,-498.05 503.00,-497.00 501.95,-495.25 501.60,-492.80"/>
    </edge>
    <edge id=":gneJ16_3" function="internal">
        <lane id=":gneJ16_3_0" index="0" disallow="pedestrian" speed="13.89" length="14.40" shape="507.20,-498.40 492.80,-498.40"/>
    </edge>
    <edge id=":gneJ16_4" function="internal">
        <lane id=":gneJ16_4_0" index="0" disallow="pedestrian" speed="13.89" length="14.40" shape="492.80,-501.60 507.20,-501.60"/>
    </edge>
    <edge id=":gneJ16_5" function="internal">
        <lane id=":gneJ16_5_0" index="0" disallow="pedestrian" speed="8.00" length="5.93" shape="492.80,-501.60 496.65,-501.05 498.40,-500.00"/>
    </edge>
    <edge id=":gneJ16_6" function="internal">
        <lane id=":gneJ16_6_0" index="0" disallow="pedestrian" speed="8.00" length="8.26" shape="498.40,-500.00 499.40,-499.40 501.05,-496.65 501.60,-492.80"/>
    </edge>
    <edge id=":gneJ17_0" function="internal">
        <lane id=":gneJ17_0_0" index="0" disallow="pedestrian" speed="6.51" length="9.03" shape="398.40,-492.80 398.05,-495.25 397.00,-497.00 395.25,-498.05 392.80,-498.40"/>
    </edge>
    <edge id=":gneJ17_1" function="internal">
        <lane id=":gneJ17_1_0" index="0" disallow="pedestrian" speed="8.00" length="14.19" shape="398.40,-492.80 398.95,-496.65 400.60,-499.40 403.35,-501.05 407.20,-501.60"/>
    </edge>
    <edge id=":gneJ17_2" function="internal">
        <lane id=":gneJ17_2_0" index="0" disallow="pedestrian" speed="6.51" length="9.03" shape="407.20,-498.40 404.75,-498.05 403.00,-497.00 401.95,-495.25 401.60,-492.80"/>
    </edge>
    <edge id=":gneJ17_3" function="internal">
        <lane id=":gneJ17_3_0" index="0" disallow="pedestrian" speed="13.89" length="14.40" shape="407.20,-498.40 392.80,-498.40"/>
    </edge>
    <edge id=":gneJ17_4" function="internal">
        <lane id=":gneJ17_4_0" index="0" disallow="pedestrian" speed="13.89" length="14.40" shape="392.80,-501.60 407.20,-501.60"/>
    </edge>
    <edge id=":gneJ17_5" function="internal">
        <lane id=":gneJ17_5_0" index="0" disallow="pedestrian" speed="8.00" length="5.93" shape="392.80,-501.60 396.65,-501.05 398.40,-500.00"/>
    </edge>
    <edge id=":gneJ17_6" function="internal">
        <lane id=":gneJ17_6_0" index="0" disallow="pedestrian" speed="8.00" length="8.26" shape="398.40,-500.00 399.40,-499.40 401.05,-496.65 401.60,-492.80"/>
    </edge>
    <edge id=":gneJ18_0" function="internal">
        <lane id=":gneJ18_0_0" index="0" disallow="pedestrian" speed="6.51" length="9.03" shape="298.40,-492.80 298.05,-495.25 297.00,-497.00 295.25,-498.05 292.80,-498.40"/>
    </edge>
    <edge id=":gneJ18_1" function="internal">
        <lane id=":gneJ18_1_0" index="0" disallow="pedestrian" speed="8.00" length="14.19" shape="298.40,-492.80 298.95,-496.65 300.60,-499.40 303.35,-501.05 307.20,-501.60"/>
    </edge>
    <edge id=":gneJ18_2" function="internal">
        <lane id=":gneJ18_2_0" index="0" disallow="pedestrian" speed="6.51" length="9.03" shape="307.20,-498.40 304.75,-498.05 303.00,-497.00 301.95,-495.25 301.60,-492.80"/>
    </edge>
    <edge id=":gneJ18_3" function="internal">
        <lane id=":gneJ18_3_0" index="0" disallow="pedestrian" speed="13.89" length="14.40" shape="307.20,-498.40 292.80,-498.40"/>
    </edge>
    <edge id=":gneJ18_4" function="internal">
        <lane id=":gneJ18_4_0" index="0" disallow="pedestrian" speed="13.89" length="14.40" shape="292.80,-501.60 307.20,-501.60"/>
    </edge>
    <edge id=":gneJ18_5" function="internal">
        <lane id=":gneJ18_5_0" index="0" disallow="pedestrian" speed="8.00" length="5.93" shape="292.80,-501.60 296.65,-501.05 298.40,-500.00"/>
    </edge>
    <edge id=":gneJ18_6" function="internal">
        <lane id=":gneJ18_6_0" index="0" disallow="pedestrian" speed="8.00" length="8.26" shape="298.40,-500.00 299.40,-499.40 301.05,-496.65 301.60,-492.80"/>
    </edge>
    <edge id=":gneJ19_0" function="internal">
        <lane id=":gneJ19_0_0" index="0" disallow="pedestrian" speed="6.51" length="9.03" shape="198.40,-492.80 198.05,-495.25 197.00,-497.00 195.25,-498.05 192.80,-498.40"/>
    </edge>
    <edge id=":gneJ19_1" function="internal">
        <lane id=":gneJ19_1_0" index="0" disallow="pedestrian" speed="8.00" length="14.19" shape="198.40,-492.80 198.95,-496.65 200.60,-499.40 203.35,-501.05 207.20,-501.60"/>
    </edge>
    <edge id=":gneJ19_2" function="internal">
        <lane id=":gneJ19_2_0" index="0" disallow="pedestrian" speed="6.51" length="9.03" shape="207.20,-498.40 204.75,-498.05 203.00,-497.00 201.95,-495.25 201.60,-492.80"/>
    </edge>
    <edge id=":gneJ19_3" function="internal">
        <lane id=":gneJ19_3_0" index="0" disallow="pedestrian" speed="13.89" length="14.40" shape="207.20,-498.40 192.80,-498.40"/>
    </edge>
    <edge id=":gneJ19_4" function="internal">
        <lane id=":gneJ19_4_0" index="0" disallow="pedestrian" speed="13.89" length="14.40" shape="192.80,-501.60 207.20,-501.60"/>
    </edge>
    <edge id=":gneJ19_5" function="internal">
        <lane id=":gneJ19_5_0" index="0" disallow="pedestrian" speed="8.00" length="5.93" shape="192.80,-501.60 196.65,-501.05 198.40,-500.00"/>
    </edge>
    <edge id=":gneJ19_6" function="internal">
        <lane id=":gneJ19_6_0" index="0" disallow="pedestrian" speed="8.00" length="8.26" shape="198.40,-500.00 199.40,-499.40 201.05,-496.65 201.60,-492.80"/>
    </edge>
    <edge id=":gneJ2_0" function="internal">
        <lane id=":gneJ2_0_0" index="0" disallow="pedestrian" speed="13.89" length="14.40" shape="7.20,1.60 -7.20,1.60"/>
    </edge>
    <edge id=":gneJ2_1" function="internal">
        <lane id=":gneJ2_1_0" index="0" disallow="pedestrian" speed="8.00" length="5.93" shape="7.20,1.60 3.35,1.05 1.60,0.00"/>
    </edge>
    <edge id=":gneJ2_6" function="internal">
        <lane id=":gneJ2_6_0" index="0" disallow="pedestrian" speed="8.00" length="8.26" shape="1.60,0.00 0.60,-0.60 -1.05,-3.35 -1.60,-7.20"/>
    </edge>
    <edge id=":gneJ2_2" function="internal">
        <lane id=":gneJ2_2_0" index="0" disallow="pedestrian" speed="6.51" length="9.03" shape="1.60,-7.20 1.95,-4.75 3.00,-3.00 4.75,-1.95 7.20,-1.60"/>
    </edge>
    <edge id=":gneJ2_3" function="internal">
        <lane id=":gneJ2_3_0" index="0" disallow="pedestrian" speed="8.00" length="14.19" shape="1.60,-7.20 1.05,-3.35 -0.60,-0.60 -3.35,1.05 -7.20,1.60"/>
    </edge>
    <edge id=":gneJ2_4" function="internal">
        <lane id=":gneJ2_4_0" index="0" disallow="pedestrian" speed="6.51" length="9.03" shape="-7.20,-1.60 -4.75,-1.95 -3.00,-3.00 -1.95,-4.75 -1.60,-7.20"/>
    </edge>
    <edge id=":gneJ2_5" function="internal">
        <lane id=":gneJ2_5_0" index="0" disallow="pedestrian" speed="13.89" length="14.40" shape="-7.20,-1.60 7.20,-1.60"/>
    </edge>
    <edge id=":gneJ20_0" function="internal">
        <lane id=":gneJ20_0_0" index="0" disallow="pedestrian" speed="6.51" length="9.03" shape="-1.60,-492.80 -1.95,-495.25 -3.00,-497.00 -4.75,-498.05 -7.20,-498.40"/>
    </edge>
    <edge id=":gneJ20_1" function="internal">
        <lane id=":gneJ20_1_0" index="0" disallow="pedestrian" speed="8.00" length="14.19" shape="-1.60,-492.80 -1.05,-496.65 0.60,-499.40 3.35,-501.05 7.20,-501.60"/>
    </edge>
    <edge id=":gneJ20_2" function="internal">
        <lane id=":gneJ20_2_0" index="0" disallow="pedestrian" speed="6.51" length="9.03" shape="7.20,-498.40 4.75,-498.05 3.00,-497.00 1.95,-495.25 1.60,-492.80"/>
    </edge>
    <edge id=":gneJ20_3" function="internal">
        <lane id=":gneJ20_3_0" index="0" disallow="pedestrian" speed="13.89" length="14.40" shape="7.20,-498.40 -7.20,-498.40"/>
    </edge>
    <edge id=":gneJ20_4" function="internal">
        <lane id=":gneJ20_4_0" index="0" disallow="pedestrian" speed="13.89" length="14.40" shape="-7.20,-501.60 7.20,-501.60"/>
    </edge>
    <edge id=":gneJ20_5" function="internal">
        <lane id=":gneJ20_5_0" index="0" disallow="pedestrian" speed="8.00" length="5.93" shape="-7.20,-501.60 -3.35,-501.05 -1.60,-500.00"/>
    </edge>
    <edge id=":gneJ20_6" function="internal">
        <lane id=":gneJ20_6_0" index="0" disallow="pedestrian" speed="8.00" length="8.26" shape="-1.60,-500.00 -0.60,-499.40 1.05,-496.65 1.60,-492.80"/>
    </edge>
    <edge id=":gneJ21_0" function="internal">
        <lane id=":gneJ21_0_0" index="0" disallow="pedestrian" speed="6.51" length="9.03" shape="-101.60,-492.80 -101.95,-495.25 -103.00,-497.00 -104.75,-498.05 -107.20,-498.40"/>
    </edge>
    <edge id=":gneJ21_1" function="internal">
        <lane id=":gneJ21_1_0" index="0" disallow="pedestrian" speed="8.00" length="14.19" shape="-101.60,-492.80 -101.05,-496.65 -99.40,-499.40 -96.65,-501.05 -92.80,-501.60"/>
    </edge>
    <edge id=":gneJ21_2" function="internal">
        <lane id=":gneJ21_2_0" index="0" disallow="pedestrian" speed="6.51" length="9.03" shape="-92.80,-498.40 -95.25,-498.05 -97.00,-497.00 -98.05,-495.25 -98.40,-492.80"/>
    </edge>
    <edge id=":gneJ21_3" function="internal">
        <lane id=":gneJ21_3_0" index="0" disallow="pedestrian" speed="13.89" length="14.40" shape="-92.80,-498.40 -107.20,-498.40"/>
    </edge>
    <edge id=":gneJ21_4" function="internal">
        <lane id=":gneJ21_4_0" index="0" disallow="pedestrian" speed="13.89" length="14.40" shape="-107.20,-501.60 -92.80,-501.60"/>
    </edge>
    <edge id=":gneJ21_5" function="internal">
        <lane id=":gneJ21_5_0" index="0" disallow="pedestrian" speed="8.00" length="5.93" shape="-107.20,-501.60 -103.35,-501.05 -101.60,-500.00"/>
    </edge>
    <edge id=":gneJ21_6" function="internal">
        <lane id=":gneJ21_6_0" index="0" disallow="pedestrian" speed="8.00" length="8.26" shape="-101.60,-500.00 -100.60,-499.40 -98.95,-496.65 -98.40,-492.80"/>
    </edge>
    <edge id=":gneJ22_0" function="internal">
        <lane id=":gneJ22_0_0" index="0" disallow="pedestrian" speed="7.10" length="10.97" shape="-201.60,-494.80 -201.18,-497.78 -199.90,-499.90 -197.77,-501.18 -194.80,-501.60"/>
    </edge>
    <edge id=":gneJ22_1" function="internal">
        <lane id=":gneJ22_1_0" index="0" disallow="pedestrian" speed="5.37" length="5.81" shape="-194.80,-498.40 -196.38,-498.17 -197.50,-497.50 -198.18,-496.38 -198.40,-494.80"/>
    </edge>
    <edge id=":gneJ23_0" function="internal">
        <lane id=":gneJ23_0_0" index="0" disallow="pedestrian" speed="13.89" length="14.40" shape="-201.60,-392.80 -201.60,-407.20"/>
    </edge>
    <edge id=":gneJ23_1" function="internal">
        <lane id=":gneJ23_1_0" index="0" disallow="pedestrian" speed="8.00" length="5.93" shape="-201.60,-392.80 -201.05,-396.65 -200.00,-398.40"/>
    </edge>
    <edge id=":gneJ23_6" function="internal">
        <lane id=":gneJ23_6_0" index="0" disallow="pedestrian" speed="8.00" length="8.26" shape="-200.00,-398.40 -199.40,-399.40 -196.65,-401.05 -192.80,-401.60"/>
    </edge>
    <edge id=":gneJ23_2" function="internal">
        <lane id=":gneJ23_2_0" index="0" disallow="pedestrian" speed="6.51" length="9.03" shape="-192.80,-398.40 -195.25,-398.05 -197.00,-397.00 -198.05,-395.25 -198.40,-392.80"/>
    </edge>
    <edge id=":gneJ23_3" function="internal">
        <lane id=":gneJ23_3_0" index="0" disallow="pedestrian" speed="8.00" length="14.19" shape="-192.80,-398.40 -196.65,-398.95 -199.40,-400.60 -201.05,-403.35 -201.60,-407.20"/>
    </edge>
    <edge id=":gneJ23_4" function="internal">
        <lane id=":gneJ23_4_0" index="0" disallow="pedestrian" speed="6.51" length="9.03" shape="-198.40,-407.20 -198.05,-404.75 -197.00,-403.00 -195.25,-401.95 -192.80,-401.60"/>
    </edge>
    <edge id=":gneJ23_5" function="internal">
        <lane id=":gneJ23_5_0" index="0" disallow="pedestrian" speed="13.89" length="14.40" shape="-198.40,-407.20 -198.40,-392.80"/>
    </edge>
    <edge id=":gneJ24_0" function="internal">
        <lane id=":gneJ24_0_0" index="0" disallow="pedestrian" speed="13.89" length="14.40" shape="-201.60,-292.80 -201.60,-307.20"/>
    </edge>
    <edge id=":gneJ24_1" function="internal">
        <lane id=":gneJ24_1_0" index="0" disallow="pedestrian" speed="8.00" length="5.93" shape="-201.60,-292.80 -201.05,-296.65 -200.00,-298.40"/>
    </edge>
    <edge id=":gneJ24_6" function="internal">
        <lane id=":gneJ24_6_0" index="0" disallow="pedestrian" speed="8.00" length="8.26" shape="-200.00,-298.40 -199.40,-299.40 -196.65,-301.05 -192.80,-301.60"/>
    </edge>
    <edge id=":gneJ24_2" function="internal">
        <lane id=":gneJ24_2_0" index="0" disallow="pedestrian" speed="6.51" length="9.03" shape="-192.80,-298.40 -195.25,-298.05 -197.00,-297.00 -198.05,-295.25 -198.40,-292.80"/>
    </edge>
    <edge id=":gneJ24_3" function="internal">
        <lane id=":gneJ24_3_0" index="0" disallow="pedestrian" speed="8.00" length="14.19" shape="-192.80,-298.40 -196.65,-298.95 -199.40,-300.60 -201.05,-303.35 -201.60,-307.20"/>
    </edge>
    <edge id=":gneJ24_4" function="internal">
        <lane id=":gneJ24_4_0" index="0" disallow="pedestrian" speed="6.51" length="9.03" shape="-198.40,-307.20 -198.05,-304.75 -197.00,-303.00 -195.25,-301.95 -192.80,-301.60"/>
    </edge>
    <edge id=":gneJ24_5" function="internal">
        <lane id=":gneJ24_5_0" index="0" disallow="pedestrian" speed="13.89" length="14.40" shape="-198.40,-307.20 -198.40,-292.80"/>
    </edge>
    <edge id=":gneJ25_0" function="internal">
        <lane id=":gneJ25_0_0" index="0" disallow="pedestrian" speed="13.89" length="14.40" shape="-201.60,-192.80 -201.60,-207.20"/>
    </edge>
    <edge id=":gneJ25_1" function="internal">
        <lane id=":gneJ25_1_0" index="0" disallow="pedestrian" speed="8.00" length="5.93" shape="-201.60,-192.80 -201.05,-196.65 -200.00,-198.40"/>
    </edge>
    <edge id=":gneJ25_6" function="internal">
        <lane id=":gneJ25_6_0" index="0" disallow="pedestrian" speed="8.00" length="8.26" shape="-200.00,-198.40 -199.40,-199.40 -196.65,-201.05 -192.80,-201.60"/>
    </edge>
    <edge id=":gneJ25_2" function="internal">
        <lane id=":gneJ25_2_0" index="0" disallow="pedestrian" speed="6.51" length="9.03" shape="-192.80,-198.40 -195.25,-198.05 -197.00,-197.00 -198.05,-195.25 -198.40,-192.80"/>
    </edge>
    <edge id=":gneJ25_3" function="internal">
        <lane id=":gneJ25_3_0" index="0" disallow="pedestrian" speed="8.00" length="14.19" shape="-192.80,-198.40 -196.65,-198.95 -199.40,-200.60 -201.05,-203.35 -201.60,-207.20"/>
    </edge>
    <edge id=":gneJ25_4" function="internal">
        <lane id=":gneJ25_4_0" index="0" disallow="pedestrian" speed="6.51" length="9.03" shape="-198.40,-207.20 -198.05,-204.75 -197.00,-203.00 -195.25,-201.95 -192.80,-201.60"/>
    </edge>
    <edge id=":gneJ25_5" function="internal">
        <lane id=":gneJ25_5_0" index="0" disallow="pedestrian" speed="13.89" length="14.40" shape="-198.40,-207.20 -198.40,-192.80"/>
    </edge>
    <edge id=":gneJ26_0" function="internal">
        <lane id=":gneJ26_0_0" index="0" disallow="pedestrian" speed="13.89" length="14.40" shape="-201.60,-92.80 -201.60,-107.20"/>
    </edge>
    <edge id=":gneJ26_1" function="internal">
        <lane id=":gneJ26_1_0" index="0" disallow="pedestrian" speed="8.00" length="5.93" shape="-201.60,-92.80 -201.05,-96.65 -200.00,-98.40"/>
    </edge>
    <edge id=":gneJ26_6" function="internal">
        <lane id=":gneJ26_6_0" index="0" disallow="pedestrian" speed="8.00" length="8.26" shape="-200.00,-98.40 -199.40,-99.40 -196.65,-101.05 -192.80,-101.60"/>
    </edge>
    <edge id=":gneJ26_2" function="internal">
        <lane id=":gneJ26_2_0" index="0" disallow="pedestrian" speed="6.51" length="9.03" shape="-192.80,-98.40 -195.25,-98.05 -197.00,-97.00 -198.05,-95.25 -198.40,-92.80"/>
    </edge>
    <edge id=":gneJ26_3" function="internal">
        <lane id=":gneJ26_3_0" index="0" disallow="pedestrian" speed="8.00" length="14.19" shape="-192.80,-98.40 -196.65,-98.95 -199.40,-100.60 -201.05,-103.35 -201.60,-107.20"/>
    </edge>
    <edge id=":gneJ26_4" function="internal">
        <lane id=":gneJ26_4_0" index="0" disallow="pedestrian" speed="6.51" length="9.03" shape="-198.40,-107.20 -198.05,-104.75 -197.00,-103.00 -195.25,-101.95 -192.80,-101.60"/>
    </edge>
    <edge id=":gneJ26_5" function="internal">
        <lane id=":gneJ26_5_0" index="0" disallow="pedestrian" speed="13.89" length="14.40" shape="-198.40,-107.20 -198.40,-92.80"/>
    </edge>
    <edge id=":gneJ27_0" function="internal">
        <lane id=":gneJ27_0_0" index="0" disallow="pedestrian" speed="6.51" length="9.03" shape="-101.60,-92.80 -101.95,-95.25 -103.00,-97.00 -104.75,-98.05 -107.20,-98.40"/>
    </edge>
    <edge id=":gneJ27_1" function="internal">
        <lane id=":gneJ27_1_0" index="0" disallow="pedestrian" speed="13.89" length="14.40" shape="-101.60,-92.80 -101.60,-107.20"/>
    </edge>
    <edge id=":gneJ27_2" function="internal">
        <lane id=":gneJ27_2_0" index="0" disallow="pedestrian" speed="8.00" length="5.93" shape="-101.60,-92.80 -101.05,-96.65 -100.00,-98.40"/>
    </edge>
    <edge id=":gneJ27_12" function="internal">
        <lane id=":gneJ27_12_0" index="0" disallow="pedestrian" speed="8.00" length="8.26" shape="-100.00,-98.40 -99.40,-99.40 -96.65,-101.05 -92.80,-101.60"/>
    </edge>
    <edge id=":gneJ27_3" function="internal">